<configuration> 

<input> 
<net-file value="my_net.net.xml"/> 
<route-files value="my_route.rou.xml"/> 
</input> 
<time> 
<begin value="0"/> 
<step-length value="0.1"/>
<end value="1"/> 
</time> 


<output> 
<netstate-dump value="output.xml" />
</output>

</configuration>